
 OpenBabel10282115583D

 48 52  0  0  1  0  0  0  0  0999 V2000
    0.9200    0.0090   -0.0593 C   0  0  0  0  0  0  0  0  0  0  0  0
    2.4400    0.0090   -0.0593 C   0  0  0  0  0  0  0  0  0  0  0  0
    3.1601   -1.2003   -0.3645 C   0  0  0  0  0  0  0  0  0  0  0  0
    4.6003   -1.2003   -0.3645 C   0  0  0  0  0  0  0  0  0  0  0  0
    5.3103   -0.0080   -0.0636 O   0  0  0  0  0  0  0  0  0  0  0  0
    4.6003    1.1844    0.2373 C   0  0  0  0  0  0  0  0  0  0  0  0
    5.2967    2.3539    0.5325 N   0  0  0  0  0  0  0  0  0  0  0  0
    4.6003    3.5235    0.8277 C   0  0  0  0  0  0  0  0  0  0  0  0
    5.3204    4.7328    1.1329 C   0  0  0  0  0  0  0  0  0  0  0  0
    4.6003    5.9422    1.4381 C   0  0  0  0  0  0  0  0  0  0  0  0
    5.3204    7.1515    1.7433 C   0  0  0  0  0  0  0  0  0  0  0  0
    4.6003    8.3608    2.0485 C   0  0  0  0  0  0  0  0  0  0  0  0
    3.1601    3.5235    0.8277 C   0  0  0  0  0  0  0  0  0  0  0  0
    2.4400    2.3142    0.5225 C   0  0  0  0  0  0  0  0  0  0  0  0
    3.1601    1.1844    0.2373 C   0  0  0  0  0  0  0  0  0  0  0  0
    5.3204   -2.4097   -0.6697 C   0  0  0  0  0  0  0  0  0  0  0  0
    6.7606   -2.4097   -0.6697 C   0  0  0  0  0  0  0  0  0  0  0  0
    3.1601    1.2183    0.2459 C   0  0  0  0  0  0  0  0  0  0  0  0
    2.4501    2.4107    0.5468 O   0  0  0  0  0  0  0  0  0  0  0  0
    3.1601    3.6031    0.8478 C   0  0  0  0  0  0  0  0  0  0  0  0
    0.4133   -1.3805   -0.4100 C   0  0  3  0  0  0  0  0  0  0  0  0
   -1.1067   -1.3805   -0.4100 C   0  0  0  0  0  0  0  0  0  0  0  0
   -1.6133   -2.7700   -0.7607 C   0  0  0  0  0  0  0  0  0  0  0  0
   -3.0293   -3.0252   -0.8251 C   0  0  0  0  0  0  0  0  0  0  0  0
   -3.4935   -4.2984   -1.1464 N   0  0  0  0  0  0  0  0  0  0  0  0
   -4.8629   -4.5452   -1.2087 C   0  0  0  0  0  0  0  0  0  0  0  0
   -5.3430   -5.8618   -1.5410 C   0  0  0  0  0  0  0  0  0  0  0  0
   -0.6774   -3.8314   -1.0286 C   0  0  0  0  0  0  0  0  0  0  0  0
    0.5633    0.7119   -0.7830 H   0  0  0  0  0  0  0  0  0  0  0  0
    0.5633    0.2843    0.9112 H   0  0  0  0  0  0  0  0  0  0  0  0
    2.6441   -2.0669   -0.5832 H   0  0  0  0  0  0  0  0  0  0  0  0
    6.3524    4.7328    1.1329 H   0  0  0  0  0  0  0  0  0  0  0  0
    3.5683    5.9422    1.4381 H   0  0  0  0  0  0  0  0  0  0  0  0
    6.3524    7.1515    1.7433 H   0  0  0  0  0  0  0  0  0  0  0  0
    4.4754    9.3541    2.2992 H   0  0  0  0  0  0  0  0  0  0  0  0
    1.4081    2.2992    0.5187 H   0  0  0  0  0  0  0  0  0  0  0  0
    2.6575    0.3104    0.0168 H   0  0  0  0  0  0  0  0  0  0  0  0
    4.8044   -3.2762   -0.8885 H   0  0  0  0  0  0  0  0  0  0  0  0
    7.7102   -2.8015   -0.7686 H   0  0  0  0  0  0  0  0  0  0  0  0
    3.4602    3.9128    1.8270 H   0  0  0  0  0  0  0  0  0  0  0  0
    3.6108    4.5199    0.5298 H   0  0  0  0  0  0  0  0  0  0  0  0
    0.5272   -2.4121   -0.6704 H   0  0  0  0  0  0  0  0  0  0  0  0
   -1.4633   -0.6776   -1.1337 H   0  0  0  0  0  0  0  0  0  0  0  0
   -1.4633   -1.1052    0.5605 H   0  0  0  0  0  0  0  0  0  0  0  0
   -3.6999   -2.2646   -0.6331 H   0  0  0  0  0  0  0  0  0  0  0  0
   -5.5335   -3.7846   -1.0168 H   0  0  0  0  0  0  0  0  0  0  0  0
   -6.0422   -6.5977   -1.7267 H   0  0  0  0  0  0  0  0  0  0  0  0
    0.3295   -4.0505   -1.0839 H   0  0  0  0  0  0  0  0  0  0  0  0
  1  2  1  0  0  0  0
  1 21  1  0  0  0  0
  1 29  1  0  0  0  0
  1 30  1  0  0  0  0
  2  3  2  0  0  0  0
  2 18  1  0  0  0  0
  3  4  1  0  0  0  0
  3 31  1  0  0  0  0
  4  5  1  0  0  0  0
  4 16  2  0  0  0  0
  5  6  1  0  0  0  0
  6  7  2  0  0  0  0
  6 15  1  0  0  0  0
  7  8  1  0  0  0  0
  8  9  2  0  0  0  0
  8 13  1  0  0  0  0
  9 10  1  0  0  0  0
  9 32  1  0  0  0  0
 10 11  2  0  0  0  0
 10 33  1  0  0  0  0
 11 12  1  0  0  0  0
 11 34  1  0  0  0  0
 12 13  2  0  0  0  0
 12 35  1  0  0  0  0
 13 14  1  0  0  0  0
 14 15  2  0  0  0  0
 14 36  1  0  0  0  0
 15 37  1  0  0  0  0
 16 17  1  0  0  0  0
 16 38  1  0  0  0  0
 17 18  2  0  0  0  0
 17 39  1  0  0  0  0
 18 19  1  0  0  0  0
 19 20  1  0  0  0  0
 20 21  1  0  0  0  0
 20 40  1  0  0  0  0
 20 41  1  0  0  0  0
 21 22  1  0  0  0  0
 21 42  1  0  0  0  0
 22 23  1  0  0  0  0
 22 43  1  0  0  0  0
 22 44  1  0  0  0  0
 23 24  2  0  0  0  0
 23 28  1  0  0  0  0
 24 25  1  0  0  0  0
 24 45  1  0  0  0  0
 25 26  2  0  0  0  0
 26 27  1  0  0  0  0
 26 46  1  0  0  0  0
 27 28  2  0  0  0  0
 27 47  1  0  0  0  0
 28 48  1  0  0  0  0
M  END
$$$$
